LAMMPS (17 Feb 2022)
# by Jin-Wu Jiang, jwjiang5918@hotmail.com; jiangjinwu@shu.edu.cn
# deform by tension
#1 general
units		metal
dimension	3
atom_style      atomic
neighbor        0.3 bin

#2 structure
boundary	p p p
read_data	mose_supercell_25_52_Se.dat
Reading data file ...
  orthogonal box = (0 0 0) to (143.38589 172.19048 30)
  reading atoms ...
  7800 atoms
mass            1 95.94
mass            2 78.96
mass            3 32.066
mass            4 78.96
mass            5 32.066
#3 variables
variable	temperature equal 4.2
variable	pressure equal 0.0
variable        tstep equal 0.001
variable	strainmax equal 0.4
variable	srate equal 1.e7/1.e12
variable        tmp equal bound(all,xmax)-bound(all,xmin)
variable        lenx equal 141.474084284365
variable	vtension equal sqrt(1e-05*1e-05)*141.474084284365
variable	nstep equal 0.4*141.474084284365/0.00141474084284365/0.001

#4 potentials
pair_style      sw/mod
pair_coeff      * * tmd.sw Mo Se S Se S

#5 optimize at 0 K
dump            1 all custom 10000 dump_minimization.lammpstrj id type x y z
fix		1 all box/relax x 0.0 y 0.0 couple xy
min_style	cg
minimize	0.0 1.0e-8 1000000 1000000
  update every 1 steps, delay 0 steps, check yes
Step Temp E_pair E_mol TotEng Press Volume
0            0   -10320.677            0   -10320.677   -23697.921    740690.54
Loop time of 10.0799 on 32 procs for 23722 steps with 7800 atoms

Minimization stats:
  Stopping criterion = force tolerance
  Energy initial, next-to-last, final =
  Force two-norm initial, final = 12430.365 8.2271472e-09
  Force max component initial, final = 8789.0298 9.1407876e-10
  Final line search alpha, max atom move = 1 9.1407876e-10
  Iterations, force evaluations = 23722 43911

undump		1
unfix		1

#6 optimize at T
compute         peratom all pe/atom
reset_timestep  0
timestep        0.001
velocity        all create 4.2 11111 mom yes rot yes
fix             1 all npt temp 4.2 4.2 0.1 iso 0 0 1
dump            1 all custom 10000 dump_optimize.lammpstrj id type x y z c_peratom fx fy fz
thermo          1000
thermo_style    custom step lx ly lz press pxx pyy pzz pe temp
neigh_modify    once yes
run             10000
Step Lx Ly Lz Press Pxx Pyy Pzz PotEng Temp
0    137.44986    165.06197           30    6.6444551   -383.84516    397.16433    6.6141948   -11367.016          4.2
Averages over the last 6 of 11 rows, steps 5000 to 10000:
Lx Ly Lz Press Pxx Pyy Pzz PotEng Temp
137.342 164.933 29.9765 1.31382 -224.637 217.985 10.5937 -11366.3 4.26798
Loop time of 2.00322 on 32 procs for 10000 steps with 7800 atoms

write_dump      all custom 10ps.lammpstrj id type x y z c_peratom fx fy fz
undump          1

dump            1 all custom 10000 dump_optimize.lammpstrj id type x y z c_peratom fx fy fz
thermo          5000
thermo_style    custom step lx ly lz press pxx pyy pzz pe temp
neigh_modify    once yes
run             90000
Step Lx Ly Lz Press Pxx Pyy Pzz PotEng Temp
10000    137.12021    164.66609     29.92805   -6.6015894     101.0004   -139.02233    18.217159   -11371.671    4.3322299
Averages over the last 10 of 19 rows, steps 55000 to 100000:
Lx Ly Lz Press Pxx Pyy Pzz PotEng Temp
136.1 163.44 29.7053 2.23753 884.482 -877.26 -0.509598 -11382.7 4.25872
Loop time of 18.9033 on 32 procs for 90000 steps with 7800 atoms

write_dump      all custom 100ps.lammpstrj id type x y z c_peratom fx fy fz
undump          1

#write_dump      all custom dump_last.lammpstrj id type x y z c_peratom fx fy fz
#dump            1 all custom 10000 dump_optimize.lammpstrj id type x y z c_peratom fx fy fz
#thermo          5000
#thermo_style    custom step lx ly lz press pxx pyy pzz pe temp
#neigh_modify    once yes
#run             900000
#undump          1
#write_dump      all custom 1ns.lammpstrj id type x y z c_peratom fx fy fz

##7 tension by deform
#reset_timestep	0
#unfix		1
#
#variable	strain equal "(lx-v_lx0)/v_lx0"
#variable	p1 equal v_strain
## pressure unit, 1bar=10^5Pa=10^{-4}GPa
## for 2D materials, 1GPa=h*0.1N/m, with thickness h in the unit of angstrom
#variable	p2 equal "-(0.0001*pxx)*(lz*0.1)"
#variable	p3 equal "0.0001*pyy"
#variable	p4 equal "0.0001*pzz"
##undump		1
#dump		1 all custom 10000 dump_compression.lammpstrj id type x y z c_peratom fx fy fz
##8 run md
#thermo		1000
#thermo_style	custom step temp v_p1 v_p2 v_p3 v_p4 ke pe press
print		"# Job done, Sir! See you."
# Job done, Sir! See you.
